     2
unstable frequency at     -0.026 1/cm IR int. is 7.2098e-01 D^2/Ang^2; red. mass is 15.999 a.m.u.; force const. is 0.000 mDyne/Ang.
O         0.0000   -0.0000    0.0424    0.6992   -0.0005   -0.0848
O        -0.0000   -0.0000    1.1651    0.7048   -0.0005   -0.0848
     2
unstable frequency at     -0.004 1/cm IR int. is 7.2099e-01 D^2/Ang^2; red. mass is 15.999 a.m.u.; force const. is 0.000 mDyne/Ang.
O         0.0000   -0.0000    0.0424    0.0006    0.7082    0.0004
O        -0.0000   -0.0000    1.1651    0.0006    0.7060    0.0004
     2
unstable frequency at     -0.001 1/cm IR int. is 7.2099e-01 D^2/Ang^2; red. mass is 15.999 a.m.u.; force const. is 0.000 mDyne/Ang.
O         0.0000   -0.0000    0.0424   -0.0844    0.0005   -0.7020
O        -0.0000   -0.0000    1.1651   -0.0851    0.0005   -0.7020
     2
stable frequency at      2.724 1/cm IR int. is 1.8889e-06 D^2/Ang^2; red. mass is 15.999 a.m.u.; force const. is 0.000 mDyne/Ang.
O         0.0000   -0.0000    0.0424   -0.0001    0.7060    0.0000
O        -0.0000   -0.0000    1.1651    0.0001   -0.7083   -0.0000
     2
stable frequency at      2.800 1/cm IR int. is 1.1596e-05 D^2/Ang^2; red. mass is 15.999 a.m.u.; force const. is 0.000 mDyne/Ang.
O         0.0000   -0.0000    0.0424   -0.7099   -0.0001    0.0000
O        -0.0000   -0.0000    1.1651    0.7043    0.0001   -0.0000
     2
stable frequency at   1923.128 1/cm IR int. is 1.1156e-10 D^2/Ang^2; red. mass is 15.999 a.m.u.; force const. is 34.863 mDyne/Ang.
O         0.0000   -0.0000    0.0424   -0.0000    0.0000   -0.7071
O        -0.0000   -0.0000    1.1651    0.0000   -0.0000    0.7071
