     2
unstable frequency at     -0.038 1/cm IR int. is 7.2095e-01 D^2/Ang^2; red. mass is 15.999 a.m.u.; force const. is 0.000 mDyne/Ang.
O        -0.0000   -0.0000    0.0424   -0.5194   -0.4868    0.0186
O         0.0000    0.0000    1.1651   -0.5107   -0.4813    0.0186
     2
unstable frequency at     -0.020 1/cm IR int. is 7.2095e-01 D^2/Ang^2; red. mass is 15.999 a.m.u.; force const. is 0.000 mDyne/Ang.
O        -0.0000   -0.0000    0.0424    0.4885   -0.5180    0.0099
O         0.0000    0.0000    1.1651    0.4802   -0.5121    0.0099
     2
unstable frequency at     -0.001 1/cm IR int. is 7.2097e-01 D^2/Ang^2; red. mass is 15.999 a.m.u.; force const. is 0.000 mDyne/Ang.
O        -0.0000   -0.0000    0.0424    0.0068    0.0201    0.7068
O         0.0000    0.0000    1.1651    0.0067    0.0199    0.7068
     2
stable frequency at      2.734 1/cm IR int. is 2.3331e-05 D^2/Ang^2; red. mass is 15.999 a.m.u.; force const. is 0.000 mDyne/Ang.
O        -0.0000   -0.0000    0.0424    0.0012    0.7031   -0.0000
O         0.0000    0.0000    1.1651   -0.0012   -0.7111    0.0000
     2
stable frequency at      2.757 1/cm IR int. is 5.2238e-05 D^2/Ang^2; red. mass is 15.999 a.m.u.; force const. is 0.000 mDyne/Ang.
O        -0.0000   -0.0000    0.0424    0.7011   -0.0011   -0.0000
O         0.0000    0.0000    1.1651   -0.7131    0.0012    0.0000
     2
stable frequency at   1923.123 1/cm IR int. is 2.2137e-10 D^2/Ang^2; red. mass is 15.999 a.m.u.; force const. is 34.863 mDyne/Ang.
O        -0.0000   -0.0000    0.0424    0.0000   -0.0000    0.7071
O         0.0000    0.0000    1.1651   -0.0000   -0.0000   -0.7071
